
OS:Version,
  {1fe077eb-735d-474f-ba32-a0f832eec515}, !- Handle
  3.9.0;                                  !- Version Identifier

OS:Site,
  {ce5f3e70-d0c5-4433-9132-2442c1a2bd46}, !- Handle
  Abu.Dhabi-Bateen.Exec.AP,               !- Name
  24.428,                                 !- Latitude {deg}
  24.428,                                 !- Longitude {deg}
  4,                                      !- Time Zone {hr}
  4.9,                                    !- Elevation {m}
  ;                                       !- Terrain

OS:YearDescription,
  {2a9ea73e-7ee7-41b6-984d-7d8e9d92263b}, !- Handle
  ,                                       !- Calendar Year
  Sunday;                                 !- Day of Week for Start Day

OS:ClimateZones,
  {47489ac7-a72e-4bf0-b8f9-5544ea4eb04f}, !- Handle
  ASHRAE,                                 !- Climate Zone Institution Name 1
  ANSI/ASHRAE Standard 169,               !- Climate Zone Document Name 1
  2006,                                   !- Climate Zone Document Year 1
  ,                                       !- Climate Zone Value 1
  CEC,                                    !- Climate Zone Institution Name 2
  California Climate Zone Descriptions,   !- Climate Zone Document Name 2
  1995,                                   !- Climate Zone Document Year 2
  ;                                       !- Climate Zone Value 2

OS:Building,
  {76de2711-557e-4e00-9e69-e12aa06bb7f5}, !- Handle
  Data_Hall,                              !- Name
  ,                                       !- Building Sector Type
  -0,                                     !- North Axis {deg}
  4,                                      !- Nominal Floor to Floor Height {m}
  {ae897207-f0f4-46e7-becc-b0682a31b16b}, !- Space Type Name
  {e1f58dac-5b2b-4ea0-8191-848f036ceb42}, !- Default Construction Set Name
  {565a265c-2193-4f00-a80b-0309c39e981d}, !- Default Schedule Set Name
  1,                                      !- Standards Number of Stories
  ,                                       !- Standards Number of Above Ground Stories
  ,                                       !- Standards Template
  ,                                       !- Standards Building Type
  ,                                       !- Standards Number of Living Units
  ,                                       !- Relocatable
  4;                                      !- Nominal Floor to Ceiling Height {m}

OS:Facility,
  {61a01684-db29-4c12-acb7-ec29d342999f}; !- Handle

OS:SimulationControl,
  {b132ca24-9731-42ab-856f-81e98ddef1f4}, !- Handle
  Yes,                                    !- Do Zone Sizing Calculation
  Yes,                                    !- Do System Sizing Calculation
  Yes,                                    !- Do Plant Sizing Calculation
  No,                                     !- Run Simulation for Sizing Periods
  Yes,                                    !- Run Simulation for Weather File Run Periods
  ,                                       !- Loads Convergence Tolerance Value {W}
  ,                                       !- Temperature Convergence Tolerance Value {deltaC}
  ,                                       !- Solar Distribution
  ,                                       !- Maximum Number of Warmup Days
  ,                                       !- Minimum Number of Warmup Days
  No,                                     !- Do HVAC Sizing Simulation for Sizing Periods
  1;                                      !- Maximum Number of HVAC Sizing Simulation Passes

OS:Sizing:Parameters,
  {0f15a8d2-5ec6-4317-b2eb-bf6d02c9db5d}, !- Handle
  1.25,                                   !- Heating Sizing Factor
  1.15;                                   !- Cooling Sizing Factor

OS:Timestep,
  {06865b37-1f3b-4741-89cb-563657017b33}, !- Handle
  6;                                      !- Number of Timesteps per Hour

OS:ShadowCalculation,
  {558465a1-6bd7-4c5e-93d4-3093fe9aed40}, !- Handle
  PolygonClipping,                        !- Shading Calculation Method
  ,                                       !- Shading Calculation Update Frequency Method
  20,                                     !- Shading Calculation Update Frequency
  15000,                                  !- Maximum Figures in Shadow Overlap Calculations
  ,                                       !- Polygon Clipping Algorithm
  512,                                    !- Pixel Counting Resolution
  ,                                       !- Sky Diffuse Modeling Algorithm
  No,                                     !- Output External Shading Calculation Results
  No,                                     !- Disable Self-Shading Within Shading Zone Groups
  No;                                     !- Disable Self-Shading From Shading Zone Groups to Other Zones

OS:HeatBalanceAlgorithm,
  {41df4aa3-eaa6-4b9c-a08c-15f72a47388a}, !- Handle
  ConductionFiniteDifference,             !- Algorithm
  200;                                    !- Surface Temperature Upper Limit {C}

OS:RunPeriod,
  {f813b2c8-d8d8-4707-ad80-3f3bf7306ad8}, !- Handle
  Run Period 1,                           !- Name
  1,                                      !- Begin Month
  1,                                      !- Begin Day of Month
  12,                                     !- End Month
  31,                                     !- End Day of Month
  ,                                       !- Use Weather File Holidays and Special Days
  ,                                       !- Use Weather File Daylight Saving Period
  ,                                       !- Apply Weekend Holiday Rule
  ,                                       !- Use Weather File Rain Indicators
  ,                                       !- Use Weather File Snow Indicators
  ;                                       !- Number of Times Runperiod to be Repeated

OS:LifeCycleCost:Parameters,
  {f2cefd67-d1bc-4096-92dc-7398b6d4d8ce}, !- Handle
  ,                                       !- Analysis Type
  ,                                       !- Discounting Convention
  ,                                       !- Inflation Approach
  ,                                       !- Real Discount Rate
  ,                                       !- Nominal Discount Rate
  ,                                       !- Inflation
  ,                                       !- Base Date Month
  ,                                       !- Base Date Year
  ,                                       !- Service Date Month
  ,                                       !- Service Date Year
  ;                                       !- Length of Study Period in Years

OS:WeatherFile,
  {d1ea5712-f56b-44e7-9c54-24e76e3dde1e}, !- Handle
  Abu.Dhabi-Bateen.Exec.AP,               !- City
  AZ,                                     !- State Province Region
  ARE,                                    !- Country
  SRC-TMYx,                               !- Data Source
  412160,                                 !- WMO Number
  24.428,                                 !- Latitude {deg}
  54.458,                                 !- Longitude {deg}
  4,                                      !- Time Zone {hr}
  4.9,                                    !- Elevation {m}
  files/ARE_AZ_Abu.Dhabi-Bateen.Exec.AP.412160_TMYx.epw, !- Url
  E7B53A54,                               !- Checksum
  ,                                       !- Start Date Actual Year
  Sunday;                                 !- Start Day of Week

OS:Space,
  {cc603b92-f4b8-42fe-87c6-df5a8488adfb}, !- Handle
  Aisle 1,                                !- Name
  {ae897207-f0f4-46e7-becc-b0682a31b16b}, !- Space Type Name
  {e1f58dac-5b2b-4ea0-8191-848f036ceb42}, !- Default Construction Set Name
  {565a265c-2193-4f00-a80b-0309c39e981d}, !- Default Schedule Set Name
  ,                                       !- Direction of Relative North {deg}
  ,                                       !- X Origin {m}
  ,                                       !- Y Origin {m}
  ,                                       !- Z Origin {m}
  {6c32e47e-f195-4525-9966-8b6db7ede0d1}, !- Building Story Name
  {1541d64e-9f32-4509-9bb2-2c7b004f6508}, !- Thermal Zone Name
  ,                                       !- Part of Total Floor Area
  ,                                       !- Design Specification Outdoor Air Object Name
  ;                                       !- Building Unit Name

OS:BuildingStory,
  {6c32e47e-f195-4525-9966-8b6db7ede0d1}, !- Handle
  Story 1,                                !- Name
  0,                                      !- Nominal Z Coordinate {m}
  2.4384,                                 !- Nominal Floor to Floor Height {m}
  {e1f58dac-5b2b-4ea0-8191-848f036ceb42}, !- Default Construction Set Name
  {565a265c-2193-4f00-a80b-0309c39e981d}, !- Default Schedule Set Name
  {5e9a5ce7-586c-4302-8512-cd10deb13da6}, !- Group Rendering Name
  2.4384;                                 !- Nominal Floor to Ceiling Height {m}

OS:Rendering:Color,
  {5e9a5ce7-586c-4302-8512-cd10deb13da6}, !- Handle
  Rendering Color 1,                      !- Name
  51,                                     !- Rendering Red Value
  34,                                     !- Rendering Green Value
  136,                                    !- Rendering Blue Value
  255;                                    !- Rendering Alpha Value

OS:ThermalZone,
  {1541d64e-9f32-4509-9bb2-2c7b004f6508}, !- Handle
  Thermal Zone_Aisle 1,                   !- Name
  1,                                      !- Multiplier
  ,                                       !- Ceiling Height {m}
  ,                                       !- Volume {m3}
  75,                                     !- Floor Area {m2}
  ,                                       !- Zone Inside Convection Algorithm
  ,                                       !- Zone Outside Convection Algorithm
  ,                                       !- Zone Conditioning Equipment List Name
  {72e5a89b-586a-4bda-b469-451f478f9cd7}, !- Zone Air Inlet Port List
  {29cddda9-8ce4-46e6-a509-0f08bfe34357}, !- Zone Air Exhaust Port List
  {8c05cbc0-6bcd-4265-a177-ca959f56754e}, !- Zone Air Node Name
  {f6436ae1-e531-4eb4-aaa8-cbd1d5db0404}, !- Zone Return Air Port List
  ,                                       !- Primary Daylighting Control Name
  ,                                       !- Fraction of Zone Controlled by Primary Daylighting Control
  ,                                       !- Secondary Daylighting Control Name
  ,                                       !- Fraction of Zone Controlled by Secondary Daylighting Control
  ,                                       !- Illuminance Map Name
  {d1292bdc-ee4f-432e-a2a4-fa717ab9d901}, !- Group Rendering Name
  {29adb8e9-40ea-460d-8cd1-183dd2fb734c}, !- Thermostat Name
  No,                                     !- Use Ideal Air Loads
  {1c554761-fee9-4237-ad5b-77ce94d06dc0}; !- Humidistat Name

OS:Node,
  {d8a2939c-1047-47fa-8508-ae187c3c8f9f}, !- Handle
  Node 1,                                 !- Name
  {8c05cbc0-6bcd-4265-a177-ca959f56754e}, !- Inlet Port
  ;                                       !- Outlet Port

OS:Connection,
  {8c05cbc0-6bcd-4265-a177-ca959f56754e}, !- Handle
  {1541d64e-9f32-4509-9bb2-2c7b004f6508}, !- Source Object
  11,                                     !- Outlet Port
  {d8a2939c-1047-47fa-8508-ae187c3c8f9f}, !- Target Object
  2;                                      !- Inlet Port

OS:PortList,
  {72e5a89b-586a-4bda-b469-451f478f9cd7}, !- Handle
  {1541d64e-9f32-4509-9bb2-2c7b004f6508}, !- HVAC Component
  {69ed81e7-9086-43d2-964b-b392804bc6c6}, !- Port 1
  {5bef35a6-ed35-4065-9d03-61f674994616}; !- Port 2

OS:PortList,
  {29cddda9-8ce4-46e6-a509-0f08bfe34357}, !- Handle
  {1541d64e-9f32-4509-9bb2-2c7b004f6508}, !- HVAC Component
  {caece79b-4dd2-4f1e-b9be-af97ef0892d6}, !- Port 1
  {98168810-1b74-4471-90cc-bbacd3cceea2}; !- Port 2

OS:PortList,
  {f6436ae1-e531-4eb4-aaa8-cbd1d5db0404}, !- Handle
  {1541d64e-9f32-4509-9bb2-2c7b004f6508}; !- HVAC Component

OS:Sizing:Zone,
  {c05ed897-83fe-496e-8d9a-5327fd667538}, !- Handle
  {1541d64e-9f32-4509-9bb2-2c7b004f6508}, !- Zone or ZoneList Name
  SupplyAirTemperature,                   !- Zone Cooling Design Supply Air Temperature Input Method
  20,                                     !- Zone Cooling Design Supply Air Temperature {C}
  5,                                      !- Zone Cooling Design Supply Air Temperature Difference {deltaC}
  SupplyAirTemperature,                   !- Zone Heating Design Supply Air Temperature Input Method
  30,                                     !- Zone Heating Design Supply Air Temperature {C}
  11.11,                                  !- Zone Heating Design Supply Air Temperature Difference {deltaC}
  0.0085,                                 !- Zone Cooling Design Supply Air Humidity Ratio {kg-H2O/kg-air}
  0.008,                                  !- Zone Heating Design Supply Air Humidity Ratio {kg-H2O/kg-air}
  0,                                      !- Zone Heating Sizing Factor
  0.9,                                    !- Zone Cooling Sizing Factor
  DesignDay,                              !- Cooling Design Air Flow Method
  ,                                       !- Cooling Design Air Flow Rate {m3/s}
  ,                                       !- Cooling Minimum Air Flow per Zone Floor Area {m3/s-m2}
  ,                                       !- Cooling Minimum Air Flow {m3/s}
  ,                                       !- Cooling Minimum Air Flow Fraction
  DesignDay,                              !- Heating Design Air Flow Method
  ,                                       !- Heating Design Air Flow Rate {m3/s}
  ,                                       !- Heating Maximum Air Flow per Zone Floor Area {m3/s-m2}
  ,                                       !- Heating Maximum Air Flow {m3/s}
  ,                                       !- Heating Maximum Air Flow Fraction
  No,                                     !- Account for Dedicated Outdoor Air System
  NeutralSupplyAir,                       !- Dedicated Outdoor Air System Control Strategy
  autosize,                               !- Dedicated Outdoor Air Low Setpoint Temperature for Design {C}
  autosize,                               !- Dedicated Outdoor Air High Setpoint Temperature for Design {C}
  Sensible Load Only No Latent Load,      !- Zone Load Sizing Method
  HumidityRatioDifference,                !- Zone Latent Cooling Design Supply Air Humidity Ratio Input Method
  ,                                       !- Zone Dehumidification Design Supply Air Humidity Ratio {kgWater/kgDryAir}
  0.005,                                  !- Zone Cooling Design Supply Air Humidity Ratio Difference {kgWater/kgDryAir}
  HumidityRatioDifference,                !- Zone Latent Heating Design Supply Air Humidity Ratio Input Method
  ,                                       !- Zone Humidification Design Supply Air Humidity Ratio {kgWater/kgDryAir}
  0.005,                                  !- Zone Humidification Design Supply Air Humidity Ratio Difference {kgWater/kgDryAir}
  ,                                       !- Zone Humidistat Dehumidification Set Point Schedule Name
  ,                                       !- Zone Humidistat Humidification Set Point Schedule Name
  ,                                       !- Design Zone Air Distribution Effectiveness in Cooling Mode
  ,                                       !- Design Zone Air Distribution Effectiveness in Heating Mode
  ,                                       !- Design Zone Secondary Recirculation Fraction {dimensionless}
  ,                                       !- Design Minimum Zone Ventilation Efficiency {dimensionless}
  Coincident;                             !- Sizing Option

OS:ZoneHVAC:EquipmentList,
  {24cb32ec-27ee-4856-b494-23fcb4d3a8bb}, !- Handle
  Zone HVAC Equipment List 1,             !- Name
  {1541d64e-9f32-4509-9bb2-2c7b004f6508}, !- Thermal Zone
  ,                                       !- Load Distribution Scheme
  {0c576a8b-141c-4896-8d75-61aeb5cb82aa}, !- Zone Equipment 1
  1,                                      !- Zone Equipment Cooling Sequence 1
  1,                                      !- Zone Equipment Heating or No-Load Sequence 1
  ,                                       !- Zone Equipment Sequential Cooling Fraction Schedule Name 1
  ,                                       !- Zone Equipment Sequential Heating Fraction Schedule Name 1
  {e7a718db-73b5-4cca-8805-adca7d19890f}, !- Zone Equipment 2
  2,                                      !- Zone Equipment Cooling Sequence 2
  2,                                      !- Zone Equipment Heating or No-Load Sequence 2
  ,                                       !- Zone Equipment Sequential Cooling Fraction Schedule Name 2
  ;                                       !- Zone Equipment Sequential Heating Fraction Schedule Name 2

OS:Rendering:Color,
  {d1292bdc-ee4f-432e-a2a4-fa717ab9d901}, !- Handle
  Rendering Color 2,                      !- Name
  0,                                      !- Rendering Red Value
  139,                                    !- Rendering Green Value
  0,                                      !- Rendering Blue Value
  255;                                    !- Rendering Alpha Value

OS:Rendering:Color,
  {1df2464f-fe8a-4016-96da-adca42cec809}, !- Handle
  Rendering Color 3,                      !- Name
  255,                                    !- Rendering Red Value
  203,                                    !- Rendering Green Value
  192;                                    !- Rendering Blue Value

OS:Rendering:Color,
  {6f7cbe5c-68a2-4c0a-912f-8db125b1b5cc}, !- Handle
  Rendering Color 4,                      !- Name
  0,                                      !- Rendering Red Value
  205,                                    !- Rendering Green Value
  0;                                      !- Rendering Blue Value

OS:Rendering:Color,
  {4b6ede85-9187-4e92-86e4-63b2b1ea9598}, !- Handle
  Rendering Color 5,                      !- Name
  128,                                    !- Rendering Red Value
  128,                                    !- Rendering Green Value
  0;                                      !- Rendering Blue Value

OS:Rendering:Color,
  {b9d61ce7-7c7c-46d9-b3d5-fd63a5f66b5e}, !- Handle
  Rendering Color 6,                      !- Name
  255,                                    !- Rendering Red Value
  0,                                      !- Rendering Green Value
  69;                                     !- Rendering Blue Value

OS:DefaultConstructionSet,
  {e1f58dac-5b2b-4ea0-8191-848f036ceb42}, !- Handle
  Aisle_construction,                     !- Name
  {18dc02e0-601f-455b-9065-1c12552fa4dd}, !- Default Exterior Surface Constructions Name
  {98ceb64e-5bee-4f6d-8808-3f480677c2f1}, !- Default Interior Surface Constructions Name
  {66215c1a-2dd9-4b52-83c6-8f14e9ab1ad3}, !- Default Ground Contact Surface Constructions Name
  {51c8eb1e-a87e-42c4-9a1c-b9113a28a75e}, !- Default Exterior SubSurface Constructions Name
  {0d3240a8-e1f9-4dd9-9c84-ddd8f5ac7851}, !- Default Interior SubSurface Constructions Name
  ,                                       !- Interior Partition Construction Name
  ,                                       !- Space Shading Construction Name
  ,                                       !- Building Shading Construction Name
  ,                                       !- Site Shading Construction Name
  ;                                       !- Adiabatic Surface Construction Name

OS:DefaultSurfaceConstructions,
  {18dc02e0-601f-455b-9065-1c12552fa4dd}, !- Handle
  Default Surface Constructions 1,        !- Name
  {8e7a1c83-1be9-406c-95d5-90b555d50bdb}, !- Floor Construction Name
  {a33ff695-3c8b-45b2-9dc7-bad18c992827}, !- Wall Construction Name
  {85150af5-f772-48c3-9ba9-648d8994bf20}; !- Roof Ceiling Construction Name

OS:DefaultSurfaceConstructions,
  {98ceb64e-5bee-4f6d-8808-3f480677c2f1}, !- Handle
  Default Surface Constructions 2,        !- Name
  {65447031-4cfc-4dd0-9f59-557bfa8b7b8a}, !- Floor Construction Name
  {5e33ec32-8e66-4939-9bb9-fbdf6129204d}, !- Wall Construction Name
  {15b68d08-702a-4265-9855-4a706d0acec7}; !- Roof Ceiling Construction Name

OS:DefaultSurfaceConstructions,
  {66215c1a-2dd9-4b52-83c6-8f14e9ab1ad3}, !- Handle
  Default Surface Constructions 3,        !- Name
  ,                                       !- Floor Construction Name
  ,                                       !- Wall Construction Name
  ;                                       !- Roof Ceiling Construction Name

OS:DefaultSubSurfaceConstructions,
  {51c8eb1e-a87e-42c4-9a1c-b9113a28a75e}, !- Handle
  Default Sub Surface Constructions 1,    !- Name
  ,                                       !- Fixed Window Construction Name
  ,                                       !- Operable Window Construction Name
  ,                                       !- Door Construction Name
  ,                                       !- Glass Door Construction Name
  ,                                       !- Overhead Door Construction Name
  ,                                       !- Skylight Construction Name
  ,                                       !- Tubular Daylight Dome Construction Name
  ;                                       !- Tubular Daylight Diffuser Construction Name

OS:DefaultSubSurfaceConstructions,
  {0d3240a8-e1f9-4dd9-9c84-ddd8f5ac7851}, !- Handle
  Default Sub Surface Constructions 2,    !- Name
  ,                                       !- Fixed Window Construction Name
  ,                                       !- Operable Window Construction Name
  ,                                       !- Door Construction Name
  ,                                       !- Glass Door Construction Name
  ,                                       !- Overhead Door Construction Name
  ,                                       !- Skylight Construction Name
  ,                                       !- Tubular Daylight Dome Construction Name
  ;                                       !- Tubular Daylight Diffuser Construction Name

OS:Construction,
  {a33ff695-3c8b-45b2-9dc7-bad18c992827}, !- Handle
  Adiabatic Wall,                         !- Name
  {f15e7c18-cf69-47c3-9741-da52bf533461}, !- Surface Rendering Name
  {b97f80f7-8482-4dd5-87f1-e30191d987f5}; !- Layer 1

OS:Material:NoMass,
  {b97f80f7-8482-4dd5-87f1-e30191d987f5}, !- Handle
  Adiabatic Material,                     !- Name
  Smooth,                                 !- Roughness
  1760.92572663938,                       !- Thermal Resistance {m2-K/W}
  ,                                       !- Thermal Absorptance
  0,                                      !- Solar Absorptance
  0;                                      !- Visible Absorptance

OS:StandardsInformation:Construction,
  {b4d4c471-e879-48a3-aadf-884a8cd8e086}, !- Handle
  {a33ff695-3c8b-45b2-9dc7-bad18c992827}, !- Construction Name
  InteriorWall,                           !- Intended Surface Type
  Mass,                                   !- Standards Construction Type
  ,                                       !- Perturbable Layer
  ,                                       !- Perturbable Layer Type
  ,                                       !- Other Perturbable Layer Type
  CEC Title24-2013;                       !- Construction Standard

OS:Construction,
  {85150af5-f772-48c3-9ba9-648d8994bf20}, !- Handle
  Adiabatic Roof,                         !- Name
  {a7a68781-53e7-42d4-b218-d165d8637efd}, !- Surface Rendering Name
  {b97f80f7-8482-4dd5-87f1-e30191d987f5}; !- Layer 1

OS:StandardsInformation:Construction,
  {78e445d2-50ff-4ca7-b1ca-3a8d0b92e3c0}, !- Handle
  {85150af5-f772-48c3-9ba9-648d8994bf20}, !- Construction Name
  ExteriorRoof,                           !- Intended Surface Type
  Attic and Other;                        !- Standards Construction Type

OS:Construction,
  {8e7a1c83-1be9-406c-95d5-90b555d50bdb}, !- Handle
  Adiabatic GroundContactFloor,           !- Name
  {e9368101-5a28-4f6b-9547-bab36675b6c6}, !- Surface Rendering Name
  {b97f80f7-8482-4dd5-87f1-e30191d987f5}; !- Layer 1

OS:StandardsInformation:Construction,
  {492d7725-62d7-413c-81ec-c8783e305d55}, !- Handle
  {8e7a1c83-1be9-406c-95d5-90b555d50bdb}, !- Construction Name
  GroundContactFloor,                     !- Intended Surface Type
  Mass,                                   !- Standards Construction Type
  ,                                       !- Perturbable Layer
  ,                                       !- Perturbable Layer Type
  ,                                       !- Other Perturbable Layer Type
  ;                                       !- Construction Standard

OS:Construction,
  {65447031-4cfc-4dd0-9f59-557bfa8b7b8a}, !- Handle
  Adiabatic GroundContactFloor 1,         !- Name
  {1157287b-430f-4a89-830e-a7366910ddc1}, !- Surface Rendering Name
  {b97f80f7-8482-4dd5-87f1-e30191d987f5}; !- Layer 1

OS:StandardsInformation:Construction,
  {300e60b9-dabc-4532-af78-ceab460c4eef}, !- Handle
  {65447031-4cfc-4dd0-9f59-557bfa8b7b8a}, !- Construction Name
  GroundContactFloor,                     !- Intended Surface Type
  Mass;                                   !- Standards Construction Type

OS:Construction,
  {15b68d08-702a-4265-9855-4a706d0acec7}, !- Handle
  Adiabatic Roof 1,                       !- Name
  {b93985b2-cb31-4967-91ba-bb9d80fce933}, !- Surface Rendering Name
  {b97f80f7-8482-4dd5-87f1-e30191d987f5}; !- Layer 1

OS:StandardsInformation:Construction,
  {d5de7b25-5dd3-4a74-87d6-9c2070c00093}, !- Handle
  {15b68d08-702a-4265-9855-4a706d0acec7}, !- Construction Name
  ExteriorRoof,                           !- Intended Surface Type
  Attic and Other;                        !- Standards Construction Type

OS:Construction,
  {5e33ec32-8e66-4939-9bb9-fbdf6129204d}, !- Handle
  Adiabatic Wall 1,                       !- Name
  {a646bf4d-54de-44af-b3cc-a79a65a3d152}, !- Surface Rendering Name
  {b97f80f7-8482-4dd5-87f1-e30191d987f5}; !- Layer 1

OS:StandardsInformation:Construction,
  {e331fdd7-0191-4173-ae5d-2f05bb80c3de}, !- Handle
  {5e33ec32-8e66-4939-9bb9-fbdf6129204d}, !- Construction Name
  InteriorPartition,                      !- Intended Surface Type
  Mass;                                   !- Standards Construction Type

OS:People:Definition,
  {54e73b3a-1821-4838-a4ff-4929a4e73023}, !- Handle
  Occupancy,                              !- Name
  People/Area,                            !- Number of People Calculation Method
  ,                                       !- Number of People {people}
  0.02,                                   !- People per Space Floor Area {person/m2}
  ,                                       !- Space Floor Area per Person {m2/person}
  0.3;                                    !- Fraction Radiant

OS:Lights:Definition,
  {5a13bf94-c246-4d62-ba07-749c305427c6}, !- Handle
  Lighting,                               !- Name
  Watts/Area,                             !- Design Level Calculation Method
  ,                                       !- Lighting Level {W}
  1,                                      !- Watts per Space Floor Area {W/m2}
  ;                                       !- Watts per Person {W/person}

OS:ElectricEquipment:Definition,
  {516e38d1-ddcb-4764-b799-6e311f643a02}, !- Handle
  Aisle Load,                             !- Name
  EquipmentLevel,                         !- Design Level Calculation Method
  4896000,                                !- Design Level {W}
  ,                                       !- Watts per Space Floor Area {W/m2}
  ;                                       !- Watts per Person {W/person}

OS:SpaceType,
  {ae897207-f0f4-46e7-becc-b0682a31b16b}, !- Handle
  Aisle,                                  !- Name
  {e1f58dac-5b2b-4ea0-8191-848f036ceb42}, !- Default Construction Set Name
  {565a265c-2193-4f00-a80b-0309c39e981d}, !- Default Schedule Set Name
  {11391969-9e45-403e-8828-5c1ea2fc95e8}; !- Group Rendering Name

OS:Rendering:Color,
  {11391969-9e45-403e-8828-5c1ea2fc95e8}, !- Handle
  Rendering Color 7,                      !- Name
  128,                                    !- Rendering Red Value
  128,                                    !- Rendering Green Value
  128,                                    !- Rendering Blue Value
  255;                                    !- Rendering Alpha Value

OS:Rendering:Color,
  {f15e7c18-cf69-47c3-9741-da52bf533461}, !- Handle
  Rendering Color 8,                      !- Name
  176,                                    !- Rendering Red Value
  230,                                    !- Rendering Green Value
  224;                                    !- Rendering Blue Value

OS:Rendering:Color,
  {a7a68781-53e7-42d4-b218-d165d8637efd}, !- Handle
  Rendering Color 9,                      !- Name
  0,                                      !- Rendering Red Value
  209,                                    !- Rendering Green Value
  206;                                    !- Rendering Blue Value

OS:Rendering:Color,
  {e9368101-5a28-4f6b-9547-bab36675b6c6}, !- Handle
  Rendering Color 10,                     !- Name
  139,                                    !- Rendering Red Value
  0,                                      !- Rendering Green Value
  0;                                      !- Rendering Blue Value

OS:Rendering:Color,
  {1157287b-430f-4a89-830e-a7366910ddc1}, !- Handle